Version 4
SHEET 1 1988 2392
WIRE -368 -80 -480 -80
WIRE -320 -80 -368 -80
WIRE -144 -80 -240 -80
WIRE -112 -80 -112 -368
WIRE -112 -80 -144 -80
WIRE 272 -48 224 -48
WIRE 368 -48 336 -48
WIRE 448 -48 432 -48
WIRE 528 -48 512 -48
WIRE 624 -48 624 -368
WIRE 624 -48 592 -48
WIRE 1024 -48 1024 -368
WIRE 1072 -48 1024 -48
WIRE 1168 -48 1136 -48
WIRE 1248 -48 1232 -48
WIRE 1328 -48 1312 -48
WIRE 1472 -48 1472 -368
WIRE 1472 -48 1392 -48
WIRE -368 0 -368 -80
WIRE -480 80 -480 0
WIRE 160 128 160 -368
WIRE 224 128 224 -48
WIRE 224 128 160 128
WIRE 272 128 224 128
WIRE 448 128 352 128
WIRE 464 128 448 128
WIRE 560 128 464 128
WIRE 1024 128 1024 -48
WIRE 1072 128 1024 128
WIRE 1168 128 1072 128
WIRE 1344 128 1248 128
WIRE 1424 128 1344 128
WIRE 752 144 688 144
WIRE 896 144 816 144
WIRE 1552 192 1520 192
WIRE 1664 192 1616 192
WIRE -368 304 -368 64
WIRE -368 304 -400 304
WIRE -176 304 -176 288
WIRE -176 304 -368 304
WIRE 160 304 160 128
WIRE 160 304 -176 304
WIRE 272 304 160 304
WIRE 448 304 448 208
WIRE 448 304 352 304
WIRE 560 304 560 208
WIRE 560 304 448 304
WIRE 624 304 624 -48
WIRE 624 304 560 304
WIRE 688 304 688 144
WIRE 688 304 624 304
WIRE 752 304 688 304
WIRE 896 304 896 144
WIRE 896 304 832 304
WIRE 1024 304 1024 128
WIRE 1024 304 896 304
WIRE 1168 304 1024 304
WIRE 1344 304 1344 208
WIRE 1344 304 1248 304
WIRE 1424 304 1424 208
WIRE 1424 304 1344 304
WIRE 1472 304 1472 -48
WIRE 1472 304 1424 304
WIRE 1520 304 1520 192
WIRE 1520 304 1472 304
WIRE 1552 304 1520 304
WIRE 1664 304 1664 192
WIRE 1664 304 1632 304
WIRE 1744 304 1664 304
WIRE -176 448 -176 432
WIRE -176 448 -272 448
WIRE 1024 448 1024 304
WIRE 1024 448 -176 448
WIRE -400 688 -400 384
WIRE -272 688 -272 528
WIRE -272 688 -400 688
WIRE 1344 688 -272 688
WIRE 1744 688 1744 304
WIRE 1744 688 1344 688
WIRE 1856 688 1744 688
WIRE 1344 720 1344 688
FLAG 1856 688 supply-gnd
FLAG 160 128 mcp1input
FLAG 464 128 mcp1output
FLAG 1072 128 mcp2inpt
FLAG 1344 128 mcp2output
FLAG 1344 720 0
FLAG -176 288 mcp1supply
FLAG -176 432 mcp2supply
FLAG -480 80 0
FLAG -144 -80 cathode
DATAFLAG 160 -368 "$"
DATAFLAG -112 -368 "$"
DATAFLAG 624 -368 "$"
DATAFLAG 1024 -368 "$"
DATAFLAG 1472 -368 "$"
SYMBOL res 576 224 R180
WINDOW 0 36 76 Left 2
WINDOW 3 36 40 Left 2
SYMATTR InstName R3
SYMATTR Value 10e3
SYMBOL res 736 320 R270
WINDOW 0 32 56 VTop 2
WINDOW 3 0 56 VBottom 2
SYMATTR InstName R4
SYMATTR Value 2e6
SYMBOL res 1536 320 R270
WINDOW 0 32 56 VTop 2
WINDOW 3 0 56 VBottom 2
SYMATTR InstName R6
SYMATTR Value 2e6
SYMBOL res -224 -96 R90
WINDOW 0 0 56 VBottom 2
WINDOW 3 32 56 VTop 2
SYMATTR InstName R9
SYMATTR Value 100e3
SYMBOL res 256 144 R270
WINDOW 0 32 56 VTop 2
WINDOW 3 0 56 VBottom 2
SYMATTR InstName MCP1
SYMATTR Value 9.2e6
SYMBOL res 1264 112 R90
WINDOW 0 0 56 VBottom 2
WINDOW 3 32 56 VTop 2
SYMATTR InstName MCP2
SYMATTR Value 8.5e6
SYMBOL zener 272 -32 R270
WINDOW 0 36 32 VTop 2
WINDOW 3 -4 32 VBottom 2
SYMATTR InstName D1
SYMATTR Value BZT03C240
SYMBOL voltage -272 544 R180
WINDOW 0 24 96 Left 2
WINDOW 3 24 16 Left 2
SYMATTR InstName V1
SYMATTR Value 1100
SYMBOL zener 752 160 R270
WINDOW 0 36 32 VTop 2
WINDOW 3 -4 32 VBottom 2
SYMATTR InstName D2
SYMATTR Value BZT03C200
SYMBOL voltage -400 400 R180
WINDOW 0 24 96 Left 2
WINDOW 3 24 16 Left 2
SYMATTR InstName V2
SYMATTR Value 2200
SYMBOL voltage -480 16 R180
WINDOW 0 24 96 Left 2
WINDOW 3 24 16 Left 2
SYMATTR InstName V3
SYMATTR Value 2200
SYMBOL zener -384 0 R0
SYMATTR InstName D4
SYMATTR Value BZT03C200
SYMBOL zener 1552 208 R270
WINDOW 0 36 32 VTop 2
WINDOW 3 -4 32 VBottom 2
SYMATTR InstName D5
SYMATTR Value BZT03C200
SYMBOL res 464 224 R180
WINDOW 0 36 76 Left 2
WINDOW 3 36 40 Left 2
SYMATTR InstName R11
SYMATTR Value 1e6
SYMBOL zener 368 -32 R270
WINDOW 0 36 32 VTop 2
WINDOW 3 -4 32 VBottom 2
SYMATTR InstName D6
SYMATTR Value BZT03C240
SYMBOL zener 448 -32 R270
WINDOW 0 36 32 VTop 2
WINDOW 3 -4 32 VBottom 2
SYMATTR InstName D7
SYMATTR Value BZT03C240
SYMBOL zener 528 -32 R270
WINDOW 0 36 32 VTop 2
WINDOW 3 -4 32 VBottom 2
SYMATTR InstName D8
SYMATTR Value BZT03C240
SYMBOL res 1440 224 R180
WINDOW 0 36 76 Left 2
WINDOW 3 36 40 Left 2
SYMATTR InstName R1
SYMATTR Value 10e3
SYMBOL res 1360 224 R180
WINDOW 0 36 76 Left 2
WINDOW 3 36 40 Left 2
SYMATTR InstName R7
SYMATTR Value 1e6
SYMBOL zener 1072 -32 R270
WINDOW 0 36 32 VTop 2
WINDOW 3 -4 32 VBottom 2
SYMATTR InstName D3
SYMATTR Value BZT03C240
SYMBOL zener 1168 -32 R270
WINDOW 0 36 32 VTop 2
WINDOW 3 -4 32 VBottom 2
SYMATTR InstName D9
SYMATTR Value BZT03C240
SYMBOL zener 1248 -32 R270
WINDOW 0 36 32 VTop 2
WINDOW 3 -4 32 VBottom 2
SYMATTR InstName D10
SYMATTR Value BZT03C240
SYMBOL zener 1328 -32 R270
WINDOW 0 36 32 VTop 2
WINDOW 3 -4 32 VBottom 2
SYMATTR InstName D11
SYMATTR Value BZT03C240
TEXT 576 776 Left 2 !.op
TEXT -360 1680 Left 2 !********************************\n* Copyright:                   *\n* Vishay Intertechnology, Inc. *\n********************************\n* Technology: DISCRETE Zener DIODE\n* Device: Diode \n* Description:\n* Type: Typical (nom)\n* Model established: 09.2008, by Harald Stix, VSA/ASSP-VOE\n* Wafer:\n* Remarks:\n* Revision: 09.2008\n* Simulation Model: \n* Simulator: PSPICE\n*DEVICE=BZT03C240,D\n* BZT03C200 D model\n* created using Parts release 8.0 on 08/2008\n* Parts is a MicroSim product.\n.MODEL BZT03C240 D\n+ IS=1.0661E-12\n+ N=1.4483\n+ RS=.11915\n+ IKF=13.524E-3\n+ CJO=99.962E-12\n+ M=.29316\n+ VJ=.42846\n+ ISR=3.8425E-9\n+ NR=1.9996\n+ BV=240\n+ IBV=10.348E-3\n+ TT=4.5627E-6\n*$
TEXT 280 944 Left 2 ;200V zeners have 200 ohm dynamic resistance at 5 mA
TEXT 600 1696 Left 2 !********************************\n* Copyright:                   *\n* Vishay Intertechnology, Inc. *\n********************************\n* Technology: DISCRETE Zener DIODE\n* Device: Diode \n* Description:\n* Type: Typical (nom)\n* Model established: 09.2008, by Harald Stix, VSA/ASSP-VOE\n* Wafer:\n* Remarks:\n* Revision: 09.2008\n* Simulation Model: \n* Simulator: PSPICE\n*DEVICE=BZT03C200,D\n* BZT03C200 D model\n* created using Parts release 8.0 on 08/2008\n* Parts is a MicroSim product.\n.MODEL BZT03C200 D\n+ IS=1.0661E-12\n+ N=1.4483\n+ RS=.11915\n+ IKF=13.524E-3\n+ CJO=99.962E-12\n+ M=.29316\n+ VJ=.42846\n+ ISR=3.8425E-9\n+ NR=1.9996\n+ BV=200\n+ IBV=10.348E-3\n+ TT=4.5627E-6\n*$
TEXT -384 912 Left 2 ;LAPPD 86 has max MCP voltage of 950V \nGain = 1.75e6 at 850V\nGain = 3.5e6 at 900V\nGain = 6e6 at 925V\n(all at 10V PC, at 50V it increases maybe by 50%)
